Version 4
SHEET 1 880 680
SYMBOL nmos4 128 96 R0
SYMATTR InstName M1
SYMATTR Value bsim3v3n
SYMBOL pmos4 304 96 R0
SYMATTR InstName M2
SYMATTR Value bsim3v3p
TEXT -152 296 Left 2 !.lib C:\\Desktop\\reserch\\simulation_model\\Phenitech06\\PTS06_mosfet_TT.txt
