Version 4
SHEET 1 2248 680
WIRE 1376 -768 1104 -768
WIRE 1824 -768 1376 -768
WIRE 1856 -768 1824 -768
WIRE 2080 -768 1856 -768
WIRE 1824 -704 1824 -768
WIRE 1376 -672 1376 -768
WIRE 2080 -672 2080 -768
WIRE 2112 -672 2080 -672
WIRE 1856 -656 1856 -768
WIRE 1856 -656 1824 -656
WIRE 2080 -656 2080 -672
WIRE 1776 -624 1696 -624
WIRE 2112 -608 2112 -672
WIRE 2112 -608 2080 -608
WIRE 1824 -576 1824 -608
WIRE 1856 -576 1824 -576
WIRE 2032 -576 1856 -576
WIRE -48 -560 -48 -624
WIRE 1376 -560 1376 -592
WIRE 1376 -560 1248 -560
WIRE 1504 -560 1376 -560
WIRE 1824 -544 1824 -576
WIRE 1248 -528 1248 -560
WIRE 1504 -528 1504 -560
WIRE 2080 -512 2080 -560
WIRE 2192 -512 2080 -512
WIRE 112 -496 112 -544
WIRE 192 -496 112 -496
WIRE 1856 -496 1856 -576
WIRE 1856 -496 1824 -496
WIRE 416 -480 416 -528
WIRE 1376 -480 1376 -560
WIRE 1376 -480 1248 -480
WIRE 1504 -480 1376 -480
WIRE 1776 -464 1712 -464
WIRE 2080 -464 2080 -512
WIRE 112 -448 112 -496
WIRE 272 -448 272 -544
WIRE 1200 -448 1168 -448
WIRE 1584 -448 1552 -448
WIRE 192 -432 192 -496
WIRE 224 -432 192 -432
WIRE -48 -416 -48 -480
WIRE -48 -416 -160 -416
WIRE 2112 -416 2080 -416
WIRE -160 -384 -160 -416
WIRE 224 -384 192 -384
WIRE 1248 -384 1248 -432
WIRE 1376 -384 1248 -384
WIRE 1504 -384 1504 -432
WIRE 1712 -384 1712 -464
WIRE 1712 -384 1504 -384
WIRE 2032 -384 1712 -384
WIRE -48 -352 -48 -416
WIRE 1248 -352 1248 -384
WIRE 1504 -352 1504 -384
WIRE 2080 -352 2080 -368
WIRE 2112 -352 2112 -416
WIRE 2112 -352 2080 -352
WIRE 416 -336 416 -400
WIRE 112 -304 112 -368
WIRE 192 -304 192 -384
WIRE 192 -304 112 -304
WIRE 272 -304 272 -368
WIRE 272 -304 192 -304
WIRE 1376 -272 1376 -384
WIRE 1376 -272 1296 -272
WIRE 1456 -272 1376 -272
WIRE 112 -240 112 -304
WIRE -48 -192 -48 -272
WIRE 1248 -192 1248 -256
WIRE 1248 -192 1120 -192
WIRE 1504 -192 1504 -256
WIRE 1504 -192 1248 -192
WIRE 1824 -192 1824 -448
WIRE 1824 -192 1504 -192
WIRE 2080 -192 2080 -352
WIRE 2080 -192 1824 -192
WIRE 1344 32 1248 32
WIRE 1520 32 1344 32
WIRE 1872 32 1520 32
WIRE 1344 128 1344 32
WIRE 1520 160 1520 32
WIRE 1552 160 1520 160
WIRE 1520 176 1520 160
WIRE 1872 176 1872 32
WIRE 1552 224 1552 160
WIRE 1552 224 1520 224
WIRE 1904 224 1872 224
WIRE 1344 256 1344 208
WIRE 1472 256 1344 256
WIRE 1824 256 1712 256
WIRE 1872 288 1872 272
WIRE 1904 288 1904 224
WIRE 1904 288 1872 288
WIRE 1712 320 1712 256
WIRE 1520 480 1520 272
WIRE 1520 480 1248 480
WIRE 1712 480 1712 400
WIRE 1712 480 1520 480
WIRE 1872 480 1872 288
WIRE 1872 480 1712 480
FLAG -160 -384 0
FLAG -48 -192 VSS
FLAG -48 -624 VDD
FLAG 112 -240 0
FLAG 112 -544 inp
FLAG 272 -544 inm
FLAG 1248 -304 VSS
FLAG 1504 -304 VSS
FLAG 1120 -192 VSS
FLAG 1104 -768 VDD
FLAG 1168 -448 inp
FLAG 1584 -448 inm
FLAG 1248 480 VSS
FLAG 1248 32 VDD
FLAG 416 -528 VDD
FLAG 416 -336 Vshift
FLAG 1696 -624 Vshift
FLAG 2192 -512 out
SYMBOL nmos4 -400 -608 R0
SYMATTR InstName M2
SYMATTR Value bsim3v3n
SYMATTR Value2 l=0.6u w=1.2u
SYMBOL pmos4 -400 -448 R0
SYMATTR InstName M3
SYMATTR Value bsim3v3p
SYMATTR Value2 l=0.6u w=1.2u
SYMBOL voltage -368 -304 R0
SYMATTR InstName V1
SYMBOL voltage -48 -576 R0
WINDOW 123 0 0 Left 0
WINDOW 39 0 0 Left 0
SYMATTR InstName V2
SYMATTR Value 2.5
SYMBOL voltage -48 -368 R0
WINDOW 123 0 0 Left 0
WINDOW 39 0 0 Left 0
SYMATTR InstName V3
SYMATTR Value 2.5
SYMBOL voltage 112 -464 R0
WINDOW 123 24 44 Left 2
WINDOW 39 0 0 Left 0
SYMATTR InstName vin
SYMATTR Value 0
SYMATTR Value2 AC 1
SYMBOL e 272 -464 R0
SYMATTR InstName E1
SYMATTR Value -1
SYMBOL pmos4 1200 -528 R0
SYMATTR InstName M1
SYMATTR Value bsim3v3p
SYMATTR Value2 l=0.6u w=1.2u
SYMBOL pmos4 1552 -528 M0
SYMATTR InstName M4
SYMATTR Value bsim3v3p
SYMATTR Value2 l=0.6u w=1.2u
SYMBOL nmos4 1456 -352 R0
SYMATTR InstName M5
SYMATTR Value bsim3v3n
SYMATTR Value2 l=0.6u w=1.2u
SYMBOL nmos4 1296 -352 M0
SYMATTR InstName M6
SYMATTR Value bsim3v3n
SYMATTR Value2 l=0.6u w=1.2u
SYMBOL current 1376 -672 R0
WINDOW 123 0 0 Left 0
WINDOW 39 0 0 Left 0
SYMATTR InstName I1
SYMATTR Value 1m
SYMBOL pmos4 1472 176 R0
SYMATTR InstName M7
SYMATTR Value bsim3v3p
SYMATTR Value2 l=0.6u w=1.2u
SYMBOL nmos4 1824 176 R0
SYMATTR InstName M8
SYMATTR Value bsim3v3n
SYMATTR Value2 l=0.6u w=1.2u
SYMBOL voltage 1344 112 R0
WINDOW 123 24 44 Left 2
WINDOW 39 0 0 Left 0
SYMATTR InstName testp
SYMATTR Value 0
SYMATTR Value2 AC 1
SYMBOL voltage 1712 304 R0
WINDOW 123 24 44 Left 2
WINDOW 39 0 0 Left 0
SYMATTR InstName testn
SYMATTR Value 0
SYMATTR Value2 AC 1
SYMBOL pmos4 1776 -704 R0
SYMATTR InstName M9
SYMATTR Value bsim3v3p
SYMATTR Value2 l=0.6u w=1.2u
SYMBOL pmos4 1776 -544 R0
SYMATTR InstName M10
SYMATTR Value bsim3v3p
SYMATTR Value2 l=0.6u w=1.2u
SYMBOL nmos4 2032 -464 R0
SYMATTR InstName M11
SYMATTR Value bsim3v3n
SYMATTR Value2 l=0.6u w=1.2u
SYMBOL pmos4 2032 -656 R0
SYMATTR InstName M12
SYMATTR Value bsim3v3p
SYMATTR Value2 l=0.6u w=1.2u
SYMBOL voltage 416 -496 R0
WINDOW 123 0 0 Left 0
WINDOW 39 0 0 Left 0
SYMATTR InstName V4
SYMATTR Value ""
TEXT 48 216 Left 2 !.lib ..\\PTS06_mosfet_TT.txt
TEXT 200 120 Left 2 !;.step param Vs 0 5 0.5
TEXT 200 152 Left 2 !.dc testp 0 5 1m
