Version 4
SHEET 1 1380 680
WIRE 288 -208 208 -208
WIRE 448 -208 288 -208
WIRE 544 -208 448 -208
WIRE 288 -144 288 -208
WIRE 448 -144 448 -208
WIRE -560 -96 -560 -160
WIRE -480 -96 -560 -96
WIRE -224 -96 -224 -160
WIRE -144 -96 -224 -96
WIRE -560 -48 -560 -96
WIRE -384 -48 -384 -160
WIRE -224 -48 -224 -96
WIRE -64 -48 -64 -160
WIRE -480 -32 -480 -96
WIRE -432 -32 -480 -32
WIRE -144 -32 -144 -96
WIRE -112 -32 -144 -32
WIRE 288 0 288 -64
WIRE 288 0 112 0
WIRE 704 0 288 0
WIRE -432 16 -480 16
WIRE -112 16 -144 16
WIRE 448 48 448 -64
WIRE 448 48 272 48
WIRE 1088 48 448 48
WIRE -560 64 -560 32
WIRE -480 64 -480 16
WIRE -480 64 -560 64
WIRE -384 64 -384 32
WIRE -384 64 -480 64
WIRE -224 64 -224 32
WIRE -144 64 -144 16
WIRE -144 64 -224 64
WIRE -64 64 -64 32
WIRE -64 64 -144 64
WIRE 112 96 112 0
WIRE 272 96 272 48
WIRE 704 96 704 0
WIRE 704 96 624 96
WIRE 784 96 704 96
WIRE 1088 96 1088 48
WIRE 1088 96 1008 96
WIRE 1168 96 1088 96
WIRE 576 112 512 112
WIRE 896 112 832 112
WIRE 960 112 896 112
WIRE 1296 112 1216 112
WIRE -832 144 -832 48
WIRE -704 144 -704 48
WIRE -560 144 -560 64
WIRE -224 144 -224 64
WIRE 192 144 112 144
WIRE 272 144 192 144
WIRE 704 144 704 96
WIRE 704 144 624 144
WIRE 784 144 704 144
WIRE 1088 144 1088 96
WIRE 1088 144 1008 144
WIRE 1168 144 1088 144
WIRE 64 176 -16 176
WIRE 400 176 320 176
WIRE 192 192 192 144
WIRE 896 192 896 112
WIRE 784 224 784 192
WIRE 1168 224 1168 192
WIRE 1168 224 784 224
WIRE 112 240 112 192
WIRE 192 240 112 240
WIRE 272 240 272 192
WIRE 272 240 192 240
WIRE 624 256 624 192
WIRE 1008 256 1008 192
WIRE 1008 256 624 256
WIRE 624 288 624 256
WIRE 1168 288 1168 224
WIRE -832 304 -832 224
WIRE -704 304 -704 224
WIRE -560 304 -560 224
WIRE -224 304 -224 224
WIRE 192 304 192 240
WIRE 224 352 192 352
WIRE 144 384 80 384
WIRE 192 416 192 400
WIRE 224 416 224 352
WIRE 224 416 192 416
WIRE 624 416 624 368
WIRE 1168 416 1168 368
WIRE 192 496 192 416
FLAG 192 192 0
FLAG 624 416 0
FLAG 1168 416 0
FLAG 192 496 0
FLAG -832 304 0
FLAG -560 304 0
FLAG -224 304 0
FLAG -832 48 Vdd
FLAG 208 -208 Vdd
FLAG -560 -160 vinp
FLAG -16 176 vinp
FLAG -384 -160 vinn
FLAG 400 176 vinn
FLAG -224 -160 vctrlp
FLAG -64 -160 vctrln
FLAG 896 192 vctrlp
FLAG 512 112 vctrln
FLAG 1296 112 vctrln
FLAG -704 304 0
FLAG -704 48 VC
FLAG 80 384 VC
SYMBOL nmos4 64 96 R0
SYMATTR InstName M1
SYMATTR Value2 l=0.72u w=4.27u m=20
SYMBOL pmos4 1216 192 R180
SYMATTR InstName M2
SYMATTR Value2 l=0.72u w=20u m=10
SYMBOL nmos4 320 96 M0
SYMATTR InstName M3
SYMATTR Value2 l=0.72u w=4.27u m=20
SYMBOL pmos4 960 192 M180
SYMATTR InstName M4
SYMATTR Value2 l=0.72u w=20u m=10
SYMBOL pmos4 832 192 R180
SYMATTR InstName M5
SYMATTR Value2 l=0.72u w=20u m=10
SYMBOL pmos4 576 192 M180
SYMATTR InstName M6
SYMATTR Value2 l=0.72u w=20u m=10
SYMBOL res 608 272 R0
SYMATTR InstName R1
SYMATTR Value 300
SYMBOL res 1152 272 R0
SYMATTR InstName R2
SYMATTR Value 300
SYMBOL current 288 -144 R0
WINDOW 123 0 0 Left 0
WINDOW 39 0 0 Left 0
SYMATTR InstName I1
SYMATTR Value 4m
SYMBOL current 448 -144 R0
WINDOW 123 0 0 Left 0
WINDOW 39 0 0 Left 0
SYMATTR InstName I2
SYMATTR Value 4m
SYMBOL voltage -832 128 R0
WINDOW 123 0 0 Left 0
WINDOW 39 0 0 Left 0
SYMATTR InstName V1
SYMATTR Value 1.8
SYMBOL voltage -560 128 R0
WINDOW 123 0 0 Left 0
WINDOW 39 0 0 Left 0
SYMATTR InstName VA
SYMATTR Value 1.59
SYMBOL voltage -224 128 R0
WINDOW 123 0 0 Left 0
WINDOW 39 0 0 Left 0
SYMATTR InstName CB
SYMATTR Value 1.09
SYMBOL voltage -560 -64 R0
WINDOW 123 0 0 Left 0
WINDOW 39 0 0 Left 0
SYMATTR InstName vin
SYMATTR Value ""
SYMBOL voltage -224 -64 R0
WINDOW 3 24 44 Left 2
WINDOW 123 0 0 Left 0
WINDOW 39 0 0 Left 0
SYMATTR Value {vctrl}
SYMATTR InstName vctrl
SYMBOL e -384 -64 R0
SYMATTR InstName E1
SYMATTR Value -1
SYMBOL e -64 -64 R0
SYMATTR InstName E2
SYMATTR Value -1
SYMBOL nmos4 144 304 R0
SYMATTR InstName M7
SYMATTR Value2 l=0.72u w=11.6u m=40
SYMBOL voltage -704 128 R0
WINDOW 123 0 0 Left 0
WINDOW 39 0 0 Left 0
SYMATTR InstName V2
SYMATTR Value 0.65
TEXT -864 440 Left 2 !.dc vin -400m 400m 0.1m
TEXT -864 512 Left 2 !.step param vctrl 0 200m 50m
